58
-1.1341464762432752e+03 frame 61   xyz file generated by TeraChem
     N     4.8328608271    2.8609189273    0.5353964284
     N    -4.8803362875    2.7847909281   -0.5405734921
     N     0.0482142098   -5.6699465512    0.0089448784
     C    -0.0014852964   -0.0176012519   -0.0025202237
     C     1.2319917950    0.7128187399    0.1312305476
     C    -1.2464802334    0.6930634402   -0.1361771701
     C     0.0099864875   -1.4571345026   -0.0022661290
     C     2.3117925979    0.2165816852    0.9003738433
     C    -2.3174632586    0.1809166736   -0.9071456768
     C     1.4254451659    1.9659630460   -0.4980396380
     C    -1.4598788507    1.9424357712    0.4939863891
     C    -1.0623550154   -2.2095954933    0.5338123130
     C     1.0953075784   -2.1929520765   -0.5354645524
     C     3.6751273048    2.1690717779    0.4046050649
     C    -3.7118772970    2.1110626169   -0.4097684076
     C     0.0355601430   -4.3150183786    0.0047969741
     C     3.4835797277    0.9177805152    1.0507156860
     C    -3.4999434633    0.8640041242   -1.0576951600
     C     2.6025594690    2.6648884268   -0.3851309737
     C    -2.6479160922    2.6227847614    0.3814676144
     C    -1.0510865366   -3.5831575886    0.5558772388
     C     1.1084897060   -3.5666175561   -0.5508283184
     C     4.9948878566    4.1548792266   -0.1118781514
     C     5.9309196160    2.3179369573    1.3219664290
     C    -5.0630791737    4.0752528860    0.1082290837
     C    -5.9670562449    2.2284681903   -1.3335994089
     C     1.1840335999   -6.3971587349   -0.5393319800
     C    -1.0712098589   -6.4148507402    0.5670278606
     H     2.1935954733   -0.7206201458    1.4337067721
     H    -2.1846450341   -0.7543069735   -1.4405525482
     H     0.6412643994    2.3650381159   -1.1324539196
     H    -0.6826925769    2.3526124185    1.1299325832
     H    -1.8973242648   -1.6887697568    0.9903078017
     H     1.9203817915   -1.6596834218   -0.9956146868
     H     4.2586533880    0.5081432459    1.6848925897
     H    -4.2683241292    0.4427578923   -1.6924137856
     H     2.7082276367    3.5983047734   -0.9220941867
     H    -2.7684464219    3.5537292584    0.9195879925
     H    -1.8813262094   -4.1030552097    1.0155160925
     H     1.9474300920   -4.0739168916   -1.0087680832
     H     5.9730684556    4.5594791514    0.1425505516
     H     4.2347703086    4.8674471893    0.2268004831
     H     4.9359955564    4.0683300393   -1.2029831936
     H     5.6508515544    2.1993903588    2.3750601516
     H     6.2583215370    1.3474344746    0.9329388074
     H     6.7761221605    3.0024355484    1.2722714847
     H    -5.0022086066    3.9885033287    1.1991321657
     H    -6.0475466130    4.4643528570   -0.1460011091
     H    -4.3147375584    4.8005425619   -0.2299539674
     H    -6.2849689530    1.2538721897   -0.9468715910
     H    -5.6790825544    2.1134647704   -2.3849597235
     H    -6.8205812856    2.9029398908   -1.2894757479
     H     2.1112959833   -6.1448365980   -0.0128747774
     H     1.3161547925   -6.1875490142   -1.6069154267
     H     1.0109987720   -7.4659606119   -0.4248937027
     H    -2.0044215721   -6.1871095268    0.0398665037
     H    -1.2063635045   -6.1964827170    1.6324934657
     H    -0.8765510934   -7.4809730182    0.4629579347

